Version 4
SHEET 1 1636 680
WIRE 368 -176 368 -192
WIRE 144 -80 128 -80
WIRE 240 -80 224 -80
WIRE 368 -80 368 -96
WIRE 368 -80 304 -80
WIRE 416 -80 368 -80
WIRE 704 -64 704 -80
WIRE 1040 -64 1024 -64
WIRE 1136 -64 1104 -64
WIRE 1344 -16 1312 -16
WIRE 1520 0 1488 0
WIRE 128 16 128 -80
WIRE 240 16 128 16
WIRE 368 16 368 -80
WIRE 368 16 304 16
WIRE 1024 16 1024 -64
WIRE 1040 16 1024 16
WIRE 1136 16 1136 -64
WIRE 1136 16 1104 16
WIRE 1344 16 1136 16
WIRE 1520 32 1520 0
WIRE 368 64 368 16
WIRE 368 64 240 64
WIRE 432 64 368 64
WIRE 576 64 512 64
WIRE 704 64 704 16
WIRE 704 64 640 64
WIRE 768 64 704 64
WIRE 1136 64 1136 16
WIRE 32 112 -80 112
WIRE 48 112 32 112
WIRE 128 112 128 16
WIRE 128 112 112 112
WIRE 176 112 128 112
WIRE 368 112 368 64
WIRE 704 112 704 64
WIRE 928 112 832 112
WIRE 1024 112 1024 16
WIRE 1024 112 992 112
WIRE 1072 112 1024 112
WIRE -80 128 -80 112
WIRE 1520 144 1520 112
WIRE 32 160 32 112
WIRE 80 160 32 160
WIRE 304 160 240 160
WIRE 80 208 80 160
WIRE 704 208 704 192
WIRE 832 208 832 192
WIRE 1136 208 1136 160
WIRE 32 304 32 240
WIRE 48 304 32 304
WIRE 128 304 128 112
WIRE 128 304 112 304
WIRE 368 304 368 288
FLAG -80 32 0
FLAG -80 -80 VCC
FLAG 368 -192 VCC
FLAG 416 -80 OUT1
FLAG 704 -80 VCC
FLAG 368 304 0
FLAG 704 208 0
FLAG 832 208 0
FLAG 832 16 VCC
FLAG 1136 208 0
FLAG 1136 -144 VCC
FLAG 1312 -16 OUT1
FLAG 1520 144 0
FLAG -80 208 0
SYMBOL cap 112 96 R90
WINDOW 0 0 32 VBottom 2
WINDOW 3 32 32 VTop 2
SYMATTR InstName C1
SYMATTR Value 1n
SYMBOL polcap 112 288 R90
WINDOW 0 0 32 VBottom 2
WINDOW 3 32 32 VTop 2
SYMATTR InstName C2
SYMATTR Value 1.5µ
SYMBOL npn 176 64 R0
SYMATTR InstName Q1
SYMATTR Value BC547B
SYMBOL res 352 192 R0
SYMATTR InstName R2
SYMATTR Value {Y}
SYMBOL diode 304 0 R90
WINDOW 0 0 32 VBottom 2
WINDOW 3 32 32 VTop 2
SYMATTR InstName D1
SYMATTR Value 1N4148
SYMBOL ZZZ\\switch\\spst 192 -80 R0
SYMATTR InstName U1
SYMATTR Value SET=0
SYMBOL voltage -80 -64 R0
WINDOW 123 0 0 Left 0
WINDOW 39 0 0 Left 0
SYMATTR InstName V1
SYMATTR Value 9
SYMBOL res 352 -192 R0
SYMATTR InstName R3
SYMATTR Value 10k
SYMBOL res 528 48 R90
WINDOW 0 0 56 VBottom 2
WINDOW 3 32 56 VTop 2
SYMATTR InstName R4
SYMATTR Value 120k
SYMBOL npn 304 112 R0
SYMATTR InstName Q2
SYMATTR Value BC547B
SYMBOL diode 240 -64 R270
WINDOW 0 32 32 VTop 2
WINDOW 3 0 32 VBottom 2
SYMATTR InstName D2
SYMATTR Value 1N4148
SYMBOL cap 640 48 R90
WINDOW 0 0 32 VBottom 2
WINDOW 3 32 32 VTop 2
SYMATTR InstName C3
SYMATTR Value 100n
SYMBOL res 688 -80 R0
SYMATTR InstName R5
SYMATTR Value 220k
SYMBOL res 688 96 R0
SYMATTR InstName R6
SYMATTR Value 220k
SYMBOL npn 768 16 R0
SYMATTR InstName Q3
SYMATTR Value BC547B
SYMBOL res 816 96 R0
SYMATTR InstName R7
SYMATTR Value 3.3k
SYMBOL polcap 928 128 R270
WINDOW 0 32 32 VTop 2
WINDOW 3 0 32 VBottom 2
SYMATTR InstName C4
SYMATTR Value 10µ
SYMBOL npn 1072 64 R0
SYMATTR InstName Q4
SYMATTR Value BC547B
SYMBOL LED 1104 0 R90
WINDOW 0 -23 29 VBottom 2
WINDOW 3 -25 29 VTop 2
SYMATTR InstName D3
SYMATTR Value LedRed
SYMATTR Description Diode
SYMATTR Type diode
SYMBOL LED 1040 -48 R270
WINDOW 0 98 37 VTop 2
WINDOW 3 103 36 VBottom 2
SYMATTR InstName D4
SYMATTR Value LedRed
SYMATTR Description Diode
SYMATTR Type diode
SYMBOL res 1120 -160 R0
SYMATTR InstName R8
SYMATTR Value 5.6k
SYMBOL Ammeter -80 -32 R180
SYMATTR InstName V2
SYMBOL ZZZ\\switch\\spdt 1376 0 M0
SYMATTR InstName U2
SYMATTR Value SET=0
SYMBOL cap 1488 -16 R90
WINDOW 0 0 32 VBottom 2
WINDOW 3 32 32 VTop 2
SYMATTR InstName C5
SYMATTR Value 100n
SYMBOL voltage -80 112 R0
WINDOW 123 -147 55 Left 2
WINDOW 39 0 0 Left 0
WINDOW 3 -459 136 Left 2
SYMATTR Value2 AC 100m
SYMATTR Value PULSE(-100m 100m 0 0 0 0.00025 0.0005)
SYMATTR InstName V3
SYMBOL potentiometer 16 144 R0
SYMATTR InstName U3
SYMATTR Value Rtot=100K wiper=.5
SYMBOL potentiometer 1504 16 R0
SYMATTR InstName U4
TEXT -408 -40 Left 2 !.STEP PARAM Y 1 1K 100
TEXT -408 -72 Left 2 !.ac oct 100 10 100k
TEXT -408 -104 Left 2 !;tran 0.1
