Version 4
SHEET 1 1620 680
WIRE 144 -80 96 -80
WIRE 240 -80 224 -80
WIRE 368 -80 304 -80
WIRE 1072 -64 1056 -64
WIRE 1168 -64 1136 -64
WIRE 1344 -32 1264 -32
WIRE 1344 -16 1344 -32
WIRE 1376 -16 1344 -16
WIRE 1552 0 1520 0
WIRE 96 16 96 -80
WIRE 240 16 96 16
WIRE 368 16 368 -80
WIRE 368 16 304 16
WIRE 480 16 368 16
WIRE 1056 16 1056 -64
WIRE 1072 16 1056 16
WIRE 1168 16 1168 -64
WIRE 1168 16 1136 16
WIRE 1376 16 1168 16
WIRE 1552 16 1552 0
WIRE 368 64 368 16
WIRE 368 64 240 64
WIRE 480 64 368 64
WIRE 640 64 560 64
WIRE 736 64 736 16
WIRE 736 64 704 64
WIRE 800 64 736 64
WIRE 1168 64 1168 16
WIRE 32 112 -112 112
WIRE 96 112 96 16
WIRE 176 112 96 112
WIRE 368 112 368 64
WIRE 736 112 736 64
WIRE 960 112 864 112
WIRE 1056 112 1056 16
WIRE 1056 112 1024 112
WIRE 1104 112 1056 112
WIRE -112 128 -112 112
WIRE 32 160 32 112
WIRE 80 160 32 160
WIRE 304 160 240 160
WIRE 80 208 80 160
WIRE 864 208 864 192
WIRE 1168 208 1168 160
WIRE 32 304 32 240
WIRE 96 304 96 112
FLAG -288 128 0
FLAG -288 16 VCC
FLAG 368 -160 VCC
FLAG 480 16 OUT1
FLAG 736 -64 VCC
FLAG 368 288 0
FLAG 736 192 0
FLAG 864 208 0
FLAG 864 16 VCC
FLAG 1168 208 0
FLAG 1168 -144 VCC
FLAG 1264 -32 OUT1
FLAG 1552 176 0
FLAG -112 208 0
SYMBOL cap 96 96 R90
WINDOW 0 0 32 VBottom 2
WINDOW 3 32 32 VTop 2
SYMATTR InstName C1
SYMATTR Value 1n
SYMBOL polcap 96 288 R90
WINDOW 0 0 32 VBottom 2
WINDOW 3 32 32 VTop 2
SYMATTR InstName C2
SYMATTR Value 1.5µ
SYMBOL npn 176 64 R0
SYMATTR InstName Q1
SYMATTR Value BC547B
SYMBOL res 16 144 R0
SYMATTR InstName R1
SYMATTR Value 1
SYMBOL res 352 192 R0
SYMATTR InstName R2
SYMATTR Value {Y}
SYMBOL diode 304 0 R90
WINDOW 0 0 32 VBottom 2
WINDOW 3 32 32 VTop 2
SYMATTR InstName D1
SYMATTR Value 1N4148
SYMBOL ZZZ\\switch\\spst 192 -80 R0
SYMATTR InstName U1
SYMATTR Value SET=0
SYMBOL voltage -288 32 R0
WINDOW 123 0 0 Left 0
WINDOW 39 0 0 Left 0
SYMATTR InstName V1
SYMATTR Value 9
SYMBOL res 352 -176 R0
SYMATTR InstName R3
SYMATTR Value 10k
SYMBOL res 576 48 R90
WINDOW 0 0 56 VBottom 2
WINDOW 3 32 56 VTop 2
SYMATTR InstName R4
SYMATTR Value 120k
SYMBOL npn 304 112 R0
SYMATTR InstName Q2
SYMATTR Value BC547B
SYMBOL diode 240 -64 R270
WINDOW 0 32 32 VTop 2
WINDOW 3 0 32 VBottom 2
SYMATTR InstName D2
SYMATTR Value 1N4148
SYMBOL cap 704 48 R90
WINDOW 0 0 32 VBottom 2
WINDOW 3 32 32 VTop 2
SYMATTR InstName C3
SYMATTR Value 100n
SYMBOL res 720 -80 R0
SYMATTR InstName R5
SYMATTR Value 220k
SYMBOL res 720 96 R0
SYMATTR InstName R6
SYMATTR Value 220k
SYMBOL npn 800 16 R0
SYMATTR InstName Q3
SYMATTR Value BC547B
SYMBOL res 848 96 R0
SYMATTR InstName R7
SYMATTR Value 3.3k
SYMBOL polcap 960 128 R270
WINDOW 0 32 32 VTop 2
WINDOW 3 0 32 VBottom 2
SYMATTR InstName C4
SYMATTR Value 10µ
SYMBOL npn 1104 64 R0
SYMATTR InstName Q4
SYMATTR Value BC547B
SYMBOL LED 1136 0 R90
WINDOW 0 0 32 VBottom 2
WINDOW 3 32 32 VTop 2
SYMATTR InstName D3
SYMATTR Value LedRed
SYMATTR Description Diode
SYMATTR Type diode
SYMBOL LED 1072 -48 R270
WINDOW 0 72 32 VTop 2
WINDOW 3 0 32 VBottom 2
SYMATTR InstName D4
SYMATTR Value LedRed
SYMATTR Description Diode
SYMATTR Type diode
SYMBOL res 1152 -160 R0
SYMATTR InstName R8
SYMATTR Value 5.6k
SYMBOL Ammeter -288 64 R180
SYMATTR InstName V2
SYMBOL ZZZ\\switch\\spdt 1408 0 M0
SYMATTR InstName U2
SYMATTR Value SET=0
SYMBOL cap 1520 -16 R90
WINDOW 0 0 32 VBottom 2
WINDOW 3 32 32 VTop 2
SYMATTR InstName C5
SYMATTR Value 100n
SYMBOL res 1536 0 R0
SYMATTR InstName R9
SYMATTR Value 90k
SYMBOL res 1536 80 R0
SYMATTR InstName R10
SYMATTR Value 10k
SYMBOL voltage -112 112 R0
WINDOW 123 24 124 Left 2
WINDOW 39 0 0 Left 0
SYMATTR InstName V3
SYMATTR Value PULSE(-100m 100m 0 0 0 0.00025 0.0005)
SYMATTR Value2 AC 100m
TEXT 184 368 Left 2 !.STEP PARAM Y 1 1K 100
TEXT 560 280 Left 2 !.ac oct 100 10 100k
TEXT -256 304 Left 2 !;tran 0.1
